  23
 units: A
      N                   -1.801560    0.333315   -1.308298
      C                   -1.692266    1.069227    0.012602
      C                   -0.217974    1.151372    0.425809
      O                    0.256888    2.203152    0.823267
      C                   -2.459655    0.319513    1.077471
      H                   -1.269452    0.827043   -2.046396
      H                   -1.440148   -0.634968   -1.234255
      H                   -2.791116    0.267637   -1.602373
      H                   -2.104621    2.114111   -0.129280
      H                   -2.391340    0.844513    2.046396
      H                   -2.090378   -0.708889    1.234538
      H                   -3.530691    0.246022    0.830204
      N                    0.476130   -0.012872    0.356408
      C                    1.893957   -0.046600    0.735408
      C                    2.681281    0.990593   -0.107455
      O                    3.486946    1.702127    0.516523
      O                    2.498931    1.021922   -1.333241
      C                    2.474208   -1.425485    0.459844
      H                    0.072921   -0.880981    0.005916
      H                    1.975132    0.211691    1.824463
      H                    1.936591   -2.203152    1.019733
      H                    3.530691   -1.461320    0.761975
      H                    2.422706   -1.683153   -0.610313

