  24
 units: A
      C                   -4.585889    0.226024   -0.000001
      C                   -3.708710    1.313953    0.000004
      C                   -2.326440    1.100724   -0.000004
      C                   -1.813744   -0.212200   -0.000003
      C                   -2.701456   -1.296455    0.000001
      C                   -4.082804   -1.077778   -0.000003
      H                   -5.655226    0.393298    0.000000
      H                   -4.099857    2.323183    0.000005
      H                   -2.319964   -2.309962   -0.000003
      H                   -4.763237   -1.919505    0.000000
      H                   -1.661299    1.954755    0.000001
      N                   -0.416267   -0.464957   -0.000001
      N                    0.416174    0.464495   -0.000002
      C                    1.813651    0.211851    0.000001
      C                    2.701216    1.296242   -0.000000
      C                    4.082584    1.077792   -0.000003
      C                    4.585854   -0.225939   -0.000003
      C                    3.708839   -1.314014    0.000003
      C                    2.326538   -1.100986   -0.000001
      H                    1.661513   -1.955122   -0.000000
      H                    2.319549    2.309681    0.000000
      H                    4.762878    1.919622    0.000004
      H                    5.655226   -0.393032    0.000002
      H                    4.100144   -2.323183   -0.000005
